/*--------------------------------*- C++ -*----------------------------------*\
  | =========                 |                                                 |
  | \\      /  F ield         | OpenFOAM: The Open Source CFD Toolbox           |
  |  \\    /   O peration     | Version:  2.3.0                                 |
  |   \\  /    A nd           | Web:      www.OpenFOAM.org                      |
  |    \\/     M anipulation  |                                                 |
  \*---------------------------------------------------------------------------*/
FoamFile
{
  version     2.0;
  format      ascii;
  class       dictionary;
  location    "system";
  object      controlDict;
}
// * * * * * * * * * * * * * * * * * * * * * * * * * * * * * * * * * * * * * //

application     blastFoam;

energyGroups    1;

externalCycles  4;

eulRel  1;

startFrom       latestTime;

startTime       0;

stopAt          endTime;

endTime         300e-6;

writeControl    runTime;

writeInterval   1e-6;

writeFormat     ascii;

writePrecision  6;

writeCompression off;

timeFormat      general;

timePrecision   12;

deltaT          1e-7;

// ************************************************************************* //


