/*--------------------------------*- C++ -*----------------------------------*\
| =========                 |                                                 |
| \\      /  F ield         | OpenFOAM: The Open Source CFD Toolbox           |
|  \\    /   O peration     | Version:  2.1.0                                 |
|   \\  /    A nd           | Web:      www.OpenFOAM.org                      |
|    \\/     M anipulation  |                                                 |
\*---------------------------------------------------------------------------*/
FoamFile
{
    version     2.0;
    format      ascii;
    class       dictionary;
    object      materialConstants;
}

// * * * * * * * * * * * * * * * * * * * * * * * * * * * * * * * * * * * * * //

void_limit -1;

gravity         gravity [0 1 -2 0 0 0 0] (0 0 0);

p0              p0 [1 -1 -2 0 0 0 0] 0.5;
T0              T0 [0 0 0 1 0 0 0] 417.50167;

EOS_m0          0; //0 = perfect gas, 1 = liquid
EOS_m1          1; //0 = perfect gas, 1 = liquid

psi_m1          psi_m1 [0 -2 2 0 0 0 0] 4.94e-8;
beta_m1         beta_m1 [1 -3 0 -1 0 0 0] 0;

R_m0            R_m0 [0 2 -2 -1 0 0 0] 1197.6;
R_m1            R_m1 [0 2 -2 -1 0 0 0] 1197.6;

Cv_m0           Cv_m0 [0 2 -2 -1 0 0 0] 1796.4;
Cv_m1           Cv_m1 [0 2 -2 -1 0 0 0] 3580;

Cp_m0           Cp_m0 [0 2 -2 -1 0 0 0] 2994;
Cp_m1           Cp_m1 [0 2 -2 -1 0 0 0] 3580;

rho0_m1         rho0_m0 [1 -3 0 0 0 0 0] 512;


// ************************************************************************* //
