/*--------------------------------*- C++ -*----------------------------------*\
| =========                 |                                                 |
| \\      /  F ield         | OpenFOAM: The Open Source CFD Toolbox           |
|  \\    /   O peration     | Version:  4.x                                   |
|   \\  /    A nd           | Web:      www.OpenFOAM.org                      |
|    \\/     M anipulation  |                                                 |
\*---------------------------------------------------------------------------*/
FoamFile
{
    version     2.0;
    format      ascii;
    class       dictionary;
    location    "system";
    object      setFieldsDict;
}
// * * * * * * * * * * * * * * * * * * * * * * * * * * * * * * * * * * * * * //

defaultFieldValues
(
    //volScalarFieldValue rho_m0 1e-6
    //volScalarFieldValue rho_m1 1e-6
    //volScalarFieldValue alpha_m0        1
    //volScalarFieldValue alpha_m1        0
    volScalarFieldValue p 0.5
    volScalarFieldValue T 849.77651
    volVectorFieldValue U (0 0 0)
);

regions
(
    sphereToCell
    {

        origin      (0 0 1);
        innerRadius 0;
        radius      0.3;
        fieldValues
        (
            volScalarFieldValue p 71335927 //64850843
            volScalarFieldValue rho 1
            volScalarFieldValue rho_m0 1
            volScalarFieldValue rho_m1 1
            volScalarFieldValue T 121239 //110217
        );
    }  

    sphereToCell
    {

        origin      (0 0 1);
        innerRadius 0.3;
        radius      0.42;
        fieldValues
        (
            volScalarFieldValue p 71335927 //64850843
            volScalarFieldValue rho 10
            volScalarFieldValue rho_m0 10
            volScalarFieldValue rho_m1 10
            volScalarFieldValue T 12123.9 //11021.7
        );
    }
//row 0

cylinderToCell
{
    p1 (0.575 -0.80808 -10);
    p2 (0.575 -0.80808 10);
    radius 0.025;
    fieldValues
    (
        volScalarFieldValue alpha_m0        0
        volScalarFieldValue alpha_m1        1
        volScalarFieldValue rho_m0          1940
        volScalarFieldValue rho_m1          1940
    );
}
cylinderToCell
{
    p1 (0.575 -0.74074 -10);
    p2 (0.575 -0.74074 10);
    radius 0.025;
    fieldValues
    (
        volScalarFieldValue alpha_m0        0
        volScalarFieldValue alpha_m1        1
        volScalarFieldValue rho_m0          1940
        volScalarFieldValue rho_m1          1940
    );
}
cylinderToCell
{
    p1 (0.575 -0.6734 -10);
    p2 (0.575 -0.6734 10);
    radius 0.025;
    fieldValues
    (
        volScalarFieldValue alpha_m0        0
        volScalarFieldValue alpha_m1        1
        volScalarFieldValue rho_m0          1940
        volScalarFieldValue rho_m1          1940
    );
}
cylinderToCell
{
    p1 (0.575 -0.60606 -10);
    p2 (0.575 -0.60606 10);
    radius 0.025;
    fieldValues
    (
        volScalarFieldValue alpha_m0        0
        volScalarFieldValue alpha_m1        1
        volScalarFieldValue rho_m0          1940
        volScalarFieldValue rho_m1          1940
    );
}
cylinderToCell
{
    p1 (0.575 -0.53872 -10);
    p2 (0.575 -0.53872 10);
    radius 0.025;
    fieldValues
    (
        volScalarFieldValue alpha_m0        0
        volScalarFieldValue alpha_m1        1
        volScalarFieldValue rho_m0          1940
        volScalarFieldValue rho_m1          1940
    );
}
cylinderToCell
{
    p1 (0.575 -0.47138 -10);
    p2 (0.575 -0.47138 10);
    radius 0.025;
    fieldValues
    (
        volScalarFieldValue alpha_m0        0
        volScalarFieldValue alpha_m1        1
        volScalarFieldValue rho_m0          1940
        volScalarFieldValue rho_m1          1940
    );
}
cylinderToCell
{
    p1 (0.575 -0.40404 -10);
    p2 (0.575 -0.40404 10);
    radius 0.025;
    fieldValues
    (
        volScalarFieldValue alpha_m0        0
        volScalarFieldValue alpha_m1        1
        volScalarFieldValue rho_m0          1940
        volScalarFieldValue rho_m1          1940
    );
}
cylinderToCell
{
    p1 (0.575 -0.3367 -10);
    p2 (0.575 -0.3367 10);
    radius 0.025;
    fieldValues
    (
        volScalarFieldValue alpha_m0        0
        volScalarFieldValue alpha_m1        1
        volScalarFieldValue rho_m0          1940
        volScalarFieldValue rho_m1          1940
    );
}
cylinderToCell
{
    p1 (0.575 -0.26936 -10);
    p2 (0.575 -0.26936 10);
    radius 0.025;
    fieldValues
    (
        volScalarFieldValue alpha_m0        0
        volScalarFieldValue alpha_m1        1
        volScalarFieldValue rho_m0          1940
        volScalarFieldValue rho_m1          1940
    );
}
cylinderToCell
{
    p1 (0.575 -0.20202 -10);
    p2 (0.575 -0.20202 10);
    radius 0.025;
    fieldValues
    (
        volScalarFieldValue alpha_m0        0
        volScalarFieldValue alpha_m1        1
        volScalarFieldValue rho_m0          1940
        volScalarFieldValue rho_m1          1940
    );
}
cylinderToCell
{
    p1 (0.575 -0.13468 -10);
    p2 (0.575 -0.13468 10);
    radius 0.025;
    fieldValues
    (
        volScalarFieldValue alpha_m0        0
        volScalarFieldValue alpha_m1        1
        volScalarFieldValue rho_m0          1940
        volScalarFieldValue rho_m1          1940
    );
}
cylinderToCell
{
    p1 (0.575 -0.06734 -10);
    p2 (0.575 -0.06734 10);
    radius 0.025;
    fieldValues
    (
        volScalarFieldValue alpha_m0        0
        volScalarFieldValue alpha_m1        1
        volScalarFieldValue rho_m0          1940
        volScalarFieldValue rho_m1          1940
    );
}
cylinderToCell
{
    p1 (0.575 0.0 -10);
    p2 (0.575 0.0 10);
    radius 0.025;
    fieldValues
    (
        volScalarFieldValue alpha_m0        0
        volScalarFieldValue alpha_m1        1
        volScalarFieldValue rho_m0          1940
        volScalarFieldValue rho_m1          1940
    );
}
cylinderToCell
{
    p1 (0.575 0.06734 -10);
    p2 (0.575 0.06734 10);
    radius 0.025;
    fieldValues
    (
        volScalarFieldValue alpha_m0        0
        volScalarFieldValue alpha_m1        1
        volScalarFieldValue rho_m0          1940
        volScalarFieldValue rho_m1          1940
    );
}
cylinderToCell
{
    p1 (0.575 0.13468 -10);
    p2 (0.575 0.13468 10);
    radius 0.025;
    fieldValues
    (
        volScalarFieldValue alpha_m0        0
        volScalarFieldValue alpha_m1        1
        volScalarFieldValue rho_m0          1940
        volScalarFieldValue rho_m1          1940
    );
}
cylinderToCell
{
    p1 (0.575 0.20202 -10);
    p2 (0.575 0.20202 10);
    radius 0.025;
    fieldValues
    (
        volScalarFieldValue alpha_m0        0
        volScalarFieldValue alpha_m1        1
        volScalarFieldValue rho_m0          1940
        volScalarFieldValue rho_m1          1940
    );
}
cylinderToCell
{
    p1 (0.575 0.26936 -10);
    p2 (0.575 0.26936 10);
    radius 0.025;
    fieldValues
    (
        volScalarFieldValue alpha_m0        0
        volScalarFieldValue alpha_m1        1
        volScalarFieldValue rho_m0          1940
        volScalarFieldValue rho_m1          1940
    );
}
cylinderToCell
{
    p1 (0.575 0.3367 -10);
    p2 (0.575 0.3367 10);
    radius 0.025;
    fieldValues
    (
        volScalarFieldValue alpha_m0        0
        volScalarFieldValue alpha_m1        1
        volScalarFieldValue rho_m0          1940
        volScalarFieldValue rho_m1          1940
    );
}
cylinderToCell
{
    p1 (0.575 0.40404 -10);
    p2 (0.575 0.40404 10);
    radius 0.025;
    fieldValues
    (
        volScalarFieldValue alpha_m0        0
        volScalarFieldValue alpha_m1        1
        volScalarFieldValue rho_m0          1940
        volScalarFieldValue rho_m1          1940
    );
}
cylinderToCell
{
    p1 (0.575 0.47138 -10);
    p2 (0.575 0.47138 10);
    radius 0.025;
    fieldValues
    (
        volScalarFieldValue alpha_m0        0
        volScalarFieldValue alpha_m1        1
        volScalarFieldValue rho_m0          1940
        volScalarFieldValue rho_m1          1940
    );
}
cylinderToCell
{
    p1 (0.575 0.53872 -10);
    p2 (0.575 0.53872 10);
    radius 0.025;
    fieldValues
    (
        volScalarFieldValue alpha_m0        0
        volScalarFieldValue alpha_m1        1
        volScalarFieldValue rho_m0          1940
        volScalarFieldValue rho_m1          1940
    );
}
cylinderToCell
{
    p1 (0.575 0.60606 -10);
    p2 (0.575 0.60606 10);
    radius 0.025;
    fieldValues
    (
        volScalarFieldValue alpha_m0        0
        volScalarFieldValue alpha_m1        1
        volScalarFieldValue rho_m0          1940
        volScalarFieldValue rho_m1          1940
    );
}
cylinderToCell
{
    p1 (0.575 0.6734 -10);
    p2 (0.575 0.6734 10);
    radius 0.025;
    fieldValues
    (
        volScalarFieldValue alpha_m0        0
        volScalarFieldValue alpha_m1        1
        volScalarFieldValue rho_m0          1940
        volScalarFieldValue rho_m1          1940
    );
}
cylinderToCell
{
    p1 (0.575 0.74074 -10);
    p2 (0.575 0.74074 10);
    radius 0.025;
    fieldValues
    (
        volScalarFieldValue alpha_m0        0
        volScalarFieldValue alpha_m1        1
        volScalarFieldValue rho_m0          1940
        volScalarFieldValue rho_m1          1940
    );
}
cylinderToCell
{
    p1 (0.575 0.80808 -10);
    p2 (0.575 0.80808 10);
    radius 0.025;
    fieldValues
    (
        volScalarFieldValue alpha_m0        0
        volScalarFieldValue alpha_m1        1
        volScalarFieldValue rho_m0          1940
        volScalarFieldValue rho_m1          1940
    );
}

// row 3

cylinderToCell
{
    p1 (0.69164 -0.74074 -10);
    p2 (0.69164 -0.74074 10);
    radius 0.025;
    fieldValues
    (
        volScalarFieldValue alpha_m0        0
        volScalarFieldValue alpha_m1        1
        volScalarFieldValue rho_m0          1940
        volScalarFieldValue rho_m1          1940
    );
}
cylinderToCell
{
    p1 (0.69164 -0.6734 -10);
    p2 (0.69164 -0.6734 10);
    radius 0.025;
    fieldValues
    (
        volScalarFieldValue alpha_m0        0
        volScalarFieldValue alpha_m1        1
        volScalarFieldValue rho_m0          1940
        volScalarFieldValue rho_m1          1940
    );
}
cylinderToCell
{
    p1 (0.69164 -0.60606 -10);
    p2 (0.69164 -0.60606 10);
    radius 0.025;
    fieldValues
    (
        volScalarFieldValue alpha_m0        0
        volScalarFieldValue alpha_m1        1
        volScalarFieldValue rho_m0          1940
        volScalarFieldValue rho_m1          1940
    );
}
cylinderToCell
{
    p1 (0.69164 -0.53872 -10);
    p2 (0.69164 -0.53872 10);
    radius 0.025;
    fieldValues
    (
        volScalarFieldValue alpha_m0        0
        volScalarFieldValue alpha_m1        1
        volScalarFieldValue rho_m0          1940
        volScalarFieldValue rho_m1          1940
    );
}
cylinderToCell
{
    p1 (0.69164 -0.47138 -10);
    p2 (0.69164 -0.47138 10);
    radius 0.025;
    fieldValues
    (
        volScalarFieldValue alpha_m0        0
        volScalarFieldValue alpha_m1        1
        volScalarFieldValue rho_m0          1940
        volScalarFieldValue rho_m1          1940
    );
}
cylinderToCell
{
    p1 (0.69164 -0.40404 -10);
    p2 (0.69164 -0.40404 10);
    radius 0.025;
    fieldValues
    (
        volScalarFieldValue alpha_m0        0
        volScalarFieldValue alpha_m1        1
        volScalarFieldValue rho_m0          1940
        volScalarFieldValue rho_m1          1940
    );
}
cylinderToCell
{
    p1 (0.69164 -0.3367 -10);
    p2 (0.69164 -0.3367 10);
    radius 0.025;
    fieldValues
    (
        volScalarFieldValue alpha_m0        0
        volScalarFieldValue alpha_m1        1
        volScalarFieldValue rho_m0          1940
        volScalarFieldValue rho_m1          1940
    );
}
cylinderToCell
{
    p1 (0.69164 -0.26936 -10);
    p2 (0.69164 -0.26936 10);
    radius 0.025;
    fieldValues
    (
        volScalarFieldValue alpha_m0        0
        volScalarFieldValue alpha_m1        1
        volScalarFieldValue rho_m0          1940
        volScalarFieldValue rho_m1          1940
    );
}
cylinderToCell
{
    p1 (0.69164 -0.20202 -10);
    p2 (0.69164 -0.20202 10);
    radius 0.025;
    fieldValues
    (
        volScalarFieldValue alpha_m0        0
        volScalarFieldValue alpha_m1        1
        volScalarFieldValue rho_m0          1940
        volScalarFieldValue rho_m1          1940
    );
}
cylinderToCell
{
    p1 (0.69164 -0.13468 -10);
    p2 (0.69164 -0.13468 10);
    radius 0.025;
    fieldValues
    (
        volScalarFieldValue alpha_m0        0
        volScalarFieldValue alpha_m1        1
        volScalarFieldValue rho_m0          1940
        volScalarFieldValue rho_m1          1940
    );
}
cylinderToCell
{
    p1 (0.69164 -0.06734 -10);
    p2 (0.69164 -0.06734 10);
    radius 0.025;
    fieldValues
    (
        volScalarFieldValue alpha_m0        0
        volScalarFieldValue alpha_m1        1
        volScalarFieldValue rho_m0          1940
        volScalarFieldValue rho_m1          1940
    );
}
cylinderToCell
{
    p1 (0.69164 0.0 -10);
    p2 (0.69164 0.0 10);
    radius 0.025;
    fieldValues
    (
        volScalarFieldValue alpha_m0        0
        volScalarFieldValue alpha_m1        1
        volScalarFieldValue rho_m0          1940
        volScalarFieldValue rho_m1          1940
    );
}
cylinderToCell
{
    p1 (0.69164 0.06734 -10);
    p2 (0.69164 0.06734 10);
    radius 0.025;
    fieldValues
    (
        volScalarFieldValue alpha_m0        0
        volScalarFieldValue alpha_m1        1
        volScalarFieldValue rho_m0          1940
        volScalarFieldValue rho_m1          1940
    );
}
cylinderToCell
{
    p1 (0.69164 0.13468 -10);
    p2 (0.69164 0.13468 10);
    radius 0.025;
    fieldValues
    (
        volScalarFieldValue alpha_m0        0
        volScalarFieldValue alpha_m1        1
        volScalarFieldValue rho_m0          1940
        volScalarFieldValue rho_m1          1940
    );
}
cylinderToCell
{
    p1 (0.69164 0.20202 -10);
    p2 (0.69164 0.20202 10);
    radius 0.025;
    fieldValues
    (
        volScalarFieldValue alpha_m0        0
        volScalarFieldValue alpha_m1        1
        volScalarFieldValue rho_m0          1940
        volScalarFieldValue rho_m1          1940
    );
}
cylinderToCell
{
    p1 (0.69164 0.26936 -10);
    p2 (0.69164 0.26936 10);
    radius 0.025;
    fieldValues
    (
        volScalarFieldValue alpha_m0        0
        volScalarFieldValue alpha_m1        1
        volScalarFieldValue rho_m0          1940
        volScalarFieldValue rho_m1          1940
    );
}
cylinderToCell
{
    p1 (0.69164 0.3367 -10);
    p2 (0.69164 0.3367 10);
    radius 0.025;
    fieldValues
    (
        volScalarFieldValue alpha_m0        0
        volScalarFieldValue alpha_m1        1
        volScalarFieldValue rho_m0          1940
        volScalarFieldValue rho_m1          1940
    );
}
cylinderToCell
{
    p1 (0.69164 0.40404 -10);
    p2 (0.69164 0.40404 10);
    radius 0.025;
    fieldValues
    (
        volScalarFieldValue alpha_m0        0
        volScalarFieldValue alpha_m1        1
        volScalarFieldValue rho_m0          1940
        volScalarFieldValue rho_m1          1940
    );
}
cylinderToCell
{
    p1 (0.69164 0.47138 -10);
    p2 (0.69164 0.47138 10);
    radius 0.025;
    fieldValues
    (
        volScalarFieldValue alpha_m0        0
        volScalarFieldValue alpha_m1        1
        volScalarFieldValue rho_m0          1940
        volScalarFieldValue rho_m1          1940
    );
}
cylinderToCell
{
    p1 (0.69164 0.53872 -10);
    p2 (0.69164 0.53872 10);
    radius 0.025;
    fieldValues
    (
        volScalarFieldValue alpha_m0        0
        volScalarFieldValue alpha_m1        1
        volScalarFieldValue rho_m0          1940
        volScalarFieldValue rho_m1          1940
    );
}
cylinderToCell
{
    p1 (0.69164 0.60606 -10);
    p2 (0.69164 0.60606 10);
    radius 0.025;
    fieldValues
    (
        volScalarFieldValue alpha_m0        0
        volScalarFieldValue alpha_m1        1
        volScalarFieldValue rho_m0          1940
        volScalarFieldValue rho_m1          1940
    );
}
cylinderToCell
{
    p1 (0.69164 0.6734 -10);
    p2 (0.69164 0.6734 10);
    radius 0.025;
    fieldValues
    (
        volScalarFieldValue alpha_m0        0
        volScalarFieldValue alpha_m1        1
        volScalarFieldValue rho_m0          1940
        volScalarFieldValue rho_m1          1940
    );
}
cylinderToCell
{
    p1 (0.69164 0.74074 -10);
    p2 (0.69164 0.74074 10);
    radius 0.025;
    fieldValues
    (
        volScalarFieldValue alpha_m0        0
        volScalarFieldValue alpha_m1        1
        volScalarFieldValue rho_m0          1940
        volScalarFieldValue rho_m1          1940
    );
}

// row 5

cylinderToCell
{
    p1 (0.80828 -0.6734 -10);
    p2 (0.80828 -0.6734 10);
    radius 0.025;
    fieldValues
    (
        volScalarFieldValue alpha_m0        0
        volScalarFieldValue alpha_m1        1
        volScalarFieldValue rho_m0          1940
        volScalarFieldValue rho_m1          1940
    );
}
cylinderToCell
{
    p1 (0.80828 -0.60606 -10);
    p2 (0.80828 -0.60606 10);
    radius 0.025;
    fieldValues
    (
        volScalarFieldValue alpha_m0        0
        volScalarFieldValue alpha_m1        1
        volScalarFieldValue rho_m0          1940
        volScalarFieldValue rho_m1          1940
    );
}
cylinderToCell
{
    p1 (0.80828 -0.53872 -10);
    p2 (0.80828 -0.53872 10);
    radius 0.025;
    fieldValues
    (
        volScalarFieldValue alpha_m0        0
        volScalarFieldValue alpha_m1        1
        volScalarFieldValue rho_m0          1940
        volScalarFieldValue rho_m1          1940
    );
}
cylinderToCell
{
    p1 (0.80828 -0.47138 -10);
    p2 (0.80828 -0.47138 10);
    radius 0.025;
    fieldValues
    (
        volScalarFieldValue alpha_m0        0
        volScalarFieldValue alpha_m1        1
        volScalarFieldValue rho_m0          1940
        volScalarFieldValue rho_m1          1940
    );
}
cylinderToCell
{
    p1 (0.80828 -0.40404 -10);
    p2 (0.80828 -0.40404 10);
    radius 0.025;
    fieldValues
    (
        volScalarFieldValue alpha_m0        0
        volScalarFieldValue alpha_m1        1
        volScalarFieldValue rho_m0          1940
        volScalarFieldValue rho_m1          1940
    );
}
cylinderToCell
{
    p1 (0.80828 -0.3367 -10);
    p2 (0.80828 -0.3367 10);
    radius 0.025;
    fieldValues
    (
        volScalarFieldValue alpha_m0        0
        volScalarFieldValue alpha_m1        1
        volScalarFieldValue rho_m0          1940
        volScalarFieldValue rho_m1          1940
    );
}
cylinderToCell
{
    p1 (0.80828 -0.26936 -10);
    p2 (0.80828 -0.26936 10);
    radius 0.025;
    fieldValues
    (
        volScalarFieldValue alpha_m0        0
        volScalarFieldValue alpha_m1        1
        volScalarFieldValue rho_m0          1940
        volScalarFieldValue rho_m1          1940
    );
}
cylinderToCell
{
    p1 (0.80828 -0.20202 -10);
    p2 (0.80828 -0.20202 10);
    radius 0.025;
    fieldValues
    (
        volScalarFieldValue alpha_m0        0
        volScalarFieldValue alpha_m1        1
        volScalarFieldValue rho_m0          1940
        volScalarFieldValue rho_m1          1940
    );
}
cylinderToCell
{
    p1 (0.80828 -0.13468 -10);
    p2 (0.80828 -0.13468 10);
    radius 0.025;
    fieldValues
    (
        volScalarFieldValue alpha_m0        0
        volScalarFieldValue alpha_m1        1
        volScalarFieldValue rho_m0          1940
        volScalarFieldValue rho_m1          1940
    );
}
cylinderToCell
{
    p1 (0.80828 -0.06734 -10);
    p2 (0.80828 -0.06734 10);
    radius 0.025;
    fieldValues
    (
        volScalarFieldValue alpha_m0        0
        volScalarFieldValue alpha_m1        1
        volScalarFieldValue rho_m0          1940
        volScalarFieldValue rho_m1          1940
    );
}
cylinderToCell
{
    p1 (0.80828 0.0 -10);
    p2 (0.80828 0.0 10);
    radius 0.025;
    fieldValues
    (
        volScalarFieldValue alpha_m0        0
        volScalarFieldValue alpha_m1        1
        volScalarFieldValue rho_m0          1940
        volScalarFieldValue rho_m1          1940
    );
}
cylinderToCell
{
    p1 (0.80828 0.06734 -10);
    p2 (0.80828 0.06734 10);
    radius 0.025;
    fieldValues
    (
        volScalarFieldValue alpha_m0        0
        volScalarFieldValue alpha_m1        1
        volScalarFieldValue rho_m0          1940
        volScalarFieldValue rho_m1          1940
    );
}
cylinderToCell
{
    p1 (0.80828 0.13468 -10);
    p2 (0.80828 0.13468 10);
    radius 0.025;
    fieldValues
    (
        volScalarFieldValue alpha_m0        0
        volScalarFieldValue alpha_m1        1
        volScalarFieldValue rho_m0          1940
        volScalarFieldValue rho_m1          1940
    );
}
cylinderToCell
{
    p1 (0.80828 0.20202 -10);
    p2 (0.80828 0.20202 10);
    radius 0.025;
    fieldValues
    (
        volScalarFieldValue alpha_m0        0
        volScalarFieldValue alpha_m1        1
        volScalarFieldValue rho_m0          1940
        volScalarFieldValue rho_m1          1940
    );
}
cylinderToCell
{
    p1 (0.80828 0.26936 -10);
    p2 (0.80828 0.26936 10);
    radius 0.025;
    fieldValues
    (
        volScalarFieldValue alpha_m0        0
        volScalarFieldValue alpha_m1        1
        volScalarFieldValue rho_m0          1940
        volScalarFieldValue rho_m1          1940
    );
}
cylinderToCell
{
    p1 (0.80828 0.3367 -10);
    p2 (0.80828 0.3367 10);
    radius 0.025;
    fieldValues
    (
        volScalarFieldValue alpha_m0        0
        volScalarFieldValue alpha_m1        1
        volScalarFieldValue rho_m0          1940
        volScalarFieldValue rho_m1          1940
    );
}
cylinderToCell
{
    p1 (0.80828 0.40404 -10);
    p2 (0.80828 0.40404 10);
    radius 0.025;
    fieldValues
    (
        volScalarFieldValue alpha_m0        0
        volScalarFieldValue alpha_m1        1
        volScalarFieldValue rho_m0          1940
        volScalarFieldValue rho_m1          1940
    );
}
cylinderToCell
{
    p1 (0.80828 0.47138 -10);
    p2 (0.80828 0.47138 10);
    radius 0.025;
    fieldValues
    (
        volScalarFieldValue alpha_m0        0
        volScalarFieldValue alpha_m1        1
        volScalarFieldValue rho_m0          1940
        volScalarFieldValue rho_m1          1940
    );
}
cylinderToCell
{
    p1 (0.80828 0.53872 -10);
    p2 (0.80828 0.53872 10);
    radius 0.025;
    fieldValues
    (
        volScalarFieldValue alpha_m0        0
        volScalarFieldValue alpha_m1        1
        volScalarFieldValue rho_m0          1940
        volScalarFieldValue rho_m1          1940
    );
}
cylinderToCell
{
    p1 (0.80828 0.60606 -10);
    p2 (0.80828 0.60606 10);
    radius 0.025;
    fieldValues
    (
        volScalarFieldValue alpha_m0        0
        volScalarFieldValue alpha_m1        1
        volScalarFieldValue rho_m0          1940
        volScalarFieldValue rho_m1          1940
    );
}
cylinderToCell
{
    p1 (0.80828 0.6734 -10);
    p2 (0.80828 0.6734 10);
    radius 0.025;
    fieldValues
    (
        volScalarFieldValue alpha_m0        0
        volScalarFieldValue alpha_m1        1
        volScalarFieldValue rho_m0          1940
        volScalarFieldValue rho_m1          1940
    );
}

// row 7

cylinderToCell
{
    p1 (0.92492 -0.60606 -10);
    p2 (0.92492 -0.60606 10);
    radius 0.025;
    fieldValues
    (
        volScalarFieldValue alpha_m0        0
        volScalarFieldValue alpha_m1        1
        volScalarFieldValue rho_m0          1940
        volScalarFieldValue rho_m1          1940
    );
}
cylinderToCell
{
    p1 (0.92492 -0.53872 -10);
    p2 (0.92492 -0.53872 10);
    radius 0.025;
    fieldValues
    (
        volScalarFieldValue alpha_m0        0
        volScalarFieldValue alpha_m1        1
        volScalarFieldValue rho_m0          1940
        volScalarFieldValue rho_m1          1940
    );
}
cylinderToCell
{
    p1 (0.92492 -0.47138 -10);
    p2 (0.92492 -0.47138 10);
    radius 0.025;
    fieldValues
    (
        volScalarFieldValue alpha_m0        0
        volScalarFieldValue alpha_m1        1
        volScalarFieldValue rho_m0          1940
        volScalarFieldValue rho_m1          1940
    );
}
cylinderToCell
{
    p1 (0.92492 -0.40404 -10);
    p2 (0.92492 -0.40404 10);
    radius 0.025;
    fieldValues
    (
        volScalarFieldValue alpha_m0        0
        volScalarFieldValue alpha_m1        1
        volScalarFieldValue rho_m0          1940
        volScalarFieldValue rho_m1          1940
    );
}
cylinderToCell
{
    p1 (0.92492 -0.3367 -10);
    p2 (0.92492 -0.3367 10);
    radius 0.025;
    fieldValues
    (
        volScalarFieldValue alpha_m0        0
        volScalarFieldValue alpha_m1        1
        volScalarFieldValue rho_m0          1940
        volScalarFieldValue rho_m1          1940
    );
}
cylinderToCell
{
    p1 (0.92492 -0.26936 -10);
    p2 (0.92492 -0.26936 10);
    radius 0.025;
    fieldValues
    (
        volScalarFieldValue alpha_m0        0
        volScalarFieldValue alpha_m1        1
        volScalarFieldValue rho_m0          1940
        volScalarFieldValue rho_m1          1940
    );
}
cylinderToCell
{
    p1 (0.92492 -0.20202 -10);
    p2 (0.92492 -0.20202 10);
    radius 0.025;
    fieldValues
    (
        volScalarFieldValue alpha_m0        0
        volScalarFieldValue alpha_m1        1
        volScalarFieldValue rho_m0          1940
        volScalarFieldValue rho_m1          1940
    );
}
cylinderToCell
{
    p1 (0.92492 -0.13468 -10);
    p2 (0.92492 -0.13468 10);
    radius 0.025;
    fieldValues
    (
        volScalarFieldValue alpha_m0        0
        volScalarFieldValue alpha_m1        1
        volScalarFieldValue rho_m0          1940
        volScalarFieldValue rho_m1          1940
    );
}
cylinderToCell
{
    p1 (0.92492 -0.06734 -10);
    p2 (0.92492 -0.06734 10);
    radius 0.025;
    fieldValues
    (
        volScalarFieldValue alpha_m0        0
        volScalarFieldValue alpha_m1        1
        volScalarFieldValue rho_m0          1940
        volScalarFieldValue rho_m1          1940
    );
}
cylinderToCell
{
    p1 (0.92492 0.0 -10);
    p2 (0.92492 0.0 10);
    radius 0.025;
    fieldValues
    (
        volScalarFieldValue alpha_m0        0
        volScalarFieldValue alpha_m1        1
        volScalarFieldValue rho_m0          1940
        volScalarFieldValue rho_m1          1940
    );
}
cylinderToCell
{
    p1 (0.92492 0.06734 -10);
    p2 (0.92492 0.06734 10);
    radius 0.025;
    fieldValues
    (
        volScalarFieldValue alpha_m0        0
        volScalarFieldValue alpha_m1        1
        volScalarFieldValue rho_m0          1940
        volScalarFieldValue rho_m1          1940
    );
}
cylinderToCell
{
    p1 (0.92492 0.13468 -10);
    p2 (0.92492 0.13468 10);
    radius 0.025;
    fieldValues
    (
        volScalarFieldValue alpha_m0        0
        volScalarFieldValue alpha_m1        1
        volScalarFieldValue rho_m0          1940
        volScalarFieldValue rho_m1          1940
    );
}
cylinderToCell
{
    p1 (0.92492 0.20202 -10);
    p2 (0.92492 0.20202 10);
    radius 0.025;
    fieldValues
    (
        volScalarFieldValue alpha_m0        0
        volScalarFieldValue alpha_m1        1
        volScalarFieldValue rho_m0          1940
        volScalarFieldValue rho_m1          1940
    );
}
cylinderToCell
{
    p1 (0.92492 0.26936 -10);
    p2 (0.92492 0.26936 10);
    radius 0.025;
    fieldValues
    (
        volScalarFieldValue alpha_m0        0
        volScalarFieldValue alpha_m1        1
        volScalarFieldValue rho_m0          1940
        volScalarFieldValue rho_m1          1940
    );
}
cylinderToCell
{
    p1 (0.92492 0.3367 -10);
    p2 (0.92492 0.3367 10);
    radius 0.025;
    fieldValues
    (
        volScalarFieldValue alpha_m0        0
        volScalarFieldValue alpha_m1        1
        volScalarFieldValue rho_m0          1940
        volScalarFieldValue rho_m1          1940
    );
}
cylinderToCell
{
    p1 (0.92492 0.40404 -10);
    p2 (0.92492 0.40404 10);
    radius 0.025;
    fieldValues
    (
        volScalarFieldValue alpha_m0        0
        volScalarFieldValue alpha_m1        1
        volScalarFieldValue rho_m0          1940
        volScalarFieldValue rho_m1          1940
    );
}
cylinderToCell
{
    p1 (0.92492 0.47138 -10);
    p2 (0.92492 0.47138 10);
    radius 0.025;
    fieldValues
    (
        volScalarFieldValue alpha_m0        0
        volScalarFieldValue alpha_m1        1
        volScalarFieldValue rho_m0          1940
        volScalarFieldValue rho_m1          1940
    );
}
cylinderToCell
{
    p1 (0.92492 0.53872 -10);
    p2 (0.92492 0.53872 10);
    radius 0.025;
    fieldValues
    (
        volScalarFieldValue alpha_m0        0
        volScalarFieldValue alpha_m1        1
        volScalarFieldValue rho_m0          1940
        volScalarFieldValue rho_m1          1940
    );
}
cylinderToCell
{
    p1 (0.92492 0.60606 -10);
    p2 (0.92492 0.60606 10);
    radius 0.025;
    fieldValues
    (
        volScalarFieldValue alpha_m0        0
        volScalarFieldValue alpha_m1        1
        volScalarFieldValue rho_m0          1940
        volScalarFieldValue rho_m1          1940
    );
}

// row 2
cylinderToCell
{
    p1 (0.63332 -0.77441 -10);
    p2 (0.63332 -0.77441 10);
    radius 0.025;
    fieldValues
    (
        volScalarFieldValue alpha_m0        0
        volScalarFieldValue alpha_m1        1
        volScalarFieldValue rho_m0          1940
        volScalarFieldValue rho_m1          1940
    );
}
cylinderToCell
{
    p1 (0.63332 -0.70707 -10);
    p2 (0.63332 -0.70707 10);
    radius 0.025;
    fieldValues
    (